Gulf_of_Mexico
1900 1 1 0 0 0

"ocean_daily",            1, "days",   1, "days", "time"

"ocean_model",  "SSH",       "ssh",      "ocean_daily",        "all", "mean", "none",2  
"ocean_model",  "SSU",       "ssu",      "ocean_daily",        "all", "mean", "none",2  
"ocean_model",  "SSV",       "ssv",      "ocean_daily",        "all", "mean", "none",2  
"ocean_model",  "SST",       "sst",      "ocean_daily",        "all", "mean", "none",2  


